LAMMPS (7 Feb 2024 - Update 1)
units metal
atom_style atomic
read_data HEA_II.lmp
Reading data file ...
  orthogonal box = (0 0 0) to (6.256 6.256 6.256)
  reading atoms ...
  16 atoms
mass 1 58.693
mass 2 58.933
mass 3 47.867
mass 4 91.224
mass 5 178.49
pair_style snap
pair_coeff * * HEA_var1.snapcoeff HEA_var1.snapparam Ni Co Ti Zr Hf
SNAP Element = Ni, Radius 1.805, Weight 0.43
SNAP Element = Co, Radius 1.81, Weight 0.48
SNAP Element = Ti, Radius 2.094, Weight 0.36
SNAP Element = Zr, Radius 2.28, Weight 0.35
SNAP Element = Hf, Radius 2.313, Weight 0.33
SNAP keyword rcutfac 1.0
SNAP keyword twojmax 8
SNAP keyword rfac0 0.99363
SNAP keyword rmin0 0.0
SNAP keyword bzeroflag 0
SNAP keyword wselfallflag 0
SNAP keyword chemflag 0
SNAP keyword bnormflag 0
SNAP keyword switchinnerflag 0
SNAP keyword quadraticflag 0
thermo_style	custom step temp pe pxx pyy pzz density
thermo 100
dump 1 all custom 100 min_dump.cfg id type x y z
min_style cg
fix 1 all box/relax aniso 0.0
minimize 0.0 0.02 5000 10000
 (src/min.cpp:219)
Step          Temp          PotEng          Pxx            Pyy            Pzz          Density
0   0             -123.22298     -62974.256     -79089.506     -79089.506      8.1479146
Loop time of 1.45897 on 1 procs for 322 steps with 16 atoms

Minimization stats:
  Stopping criterion = force tolerance
  Energy initial, next-to-last, final =
  Force two-norm initial, final = 19.625945 0.010526948
  Force max component initial, final = 12.086449 0.0033737479
  Final line search alpha, max atom move = 0.0021285469 7.1811805e-06
  Iterations, force evaluations = 322 324

unfix 1
minimize 0.0 0.02 5000 10000
Step          Temp          PotEng          Pxx            Pyy            Pzz          Density
322   0             -123.55226      23.288165     -6.9782511     -6.9782511      8.5651646
Loop time of 0.0134441 on 1 procs for 1 steps with 16 atoms

Minimization stats:
  Stopping criterion = force tolerance
  Energy initial, next-to-last, final =
  Force two-norm initial, final = 0.0098622122 0.0078992003
  Force max component initial, final = 0.0025131544 0.0029827463
  Final line search alpha, max atom move = 1 0.0029827463
  Iterations, force evaluations = 1 2

undump 1
variable lenx equal lx
variable leny equal ly
variable lenz equal lz
compute sta all stress/atom NULL
compute vol_atom all voronoi/atom
variable	va atom c_vol_atom[1]
variable	sa_xx atom 1E-4*c_sta[1]/v_va
variable	sa_yy atom 1E-4*c_sta[2]/v_va
variable	sa_zz atom 1E-4*c_sta[3]/v_va
variable	sa_xy atom 1E-4*c_sta[4]/v_va
variable	sa_xz atom 1E-4*c_sta[5]/v_va
variable	sa_yz atom 1E-4*c_sta[6]/v_va
variable	sa_hydro atom (v_sa_xx+v_sa_yy+v_sa_zz)/3.0
variable	sa_von atom sqrt(0.5*((v_sa_xx-v_sa_yy)^2+(v_sa_yy-v_sa_zz)^2+(v_sa_zz-v_sa_xx)^2)+3.0*((v_sa_xy)^2+(v_sa_xz)^2+(v_sa_yz)^2))
timestep	0.001
neighbor	1.0 bin
neigh_modify	every 5 delay 0 check yes
reset_timestep	0
velocity all create 300.0 12345678
dump	1 all custom 1000 md_npt_dump.cfg id type x y z v_sa_hydro v_sa_von
fix 	1 all npt temp 300 300 0.1 aniso 0 0 1.0
fix 	avg all ave/time 10 500 50000 v_lenx v_leny v_lenz
fix __pylammps_internal_run_callback all python/invoke 1 end_of_step _PyLammps_end_of_step_callback
run 50000
Step          Temp          PotEng          Pxx            Pyy            Pzz          Density
0   300           -123.55227      2595.2985      3409.6468      1996.6772      8.5651646
Averages over the last 251 of 501 rows, steps 25000 to 50000:
Temp PotEng Pxx Pyy Pzz Density
291.913 -123.054 -269.189 53.0694 -184.905 8.44486
Loop time of 133.893 on 1 procs for 50000 steps with 16 atoms

unfix __pylammps_internal_run_callback
undump 1
unfix 1
variable newlx equal f_avg[1]
variable newly equal f_avg[2]
variable newlz equal f_avg[3]
change_box all x final 0 6.35187434162966 y final 0 6.09054354738993 z final 0 6.11139352717851 remap units box
Changing box ...
  orthogonal box = (0 0.12693131 0.030610119) to (6.3518743 6.1290687 6.2253899)
  orthogonal box = (0 0 0.030610119) to (6.3518743 6.0905435 6.2253899)
  orthogonal box = (0 0 0) to (6.3518743 6.0905435 6.1113935)
unfix avg
dump 1 all custom 100 min_dump.cfg id type x y z v_sa_hydro v_sa_von
minimize 0.0 0.02 5000 10000
Step          Temp          PotEng          Pxx            Pyy            Pzz          Density
50000   270.89557     -122.89128     -6063.2706      6052.4841      4855.8777      8.4379799
Loop time of 0.112523 on 1 procs for 13 steps with 16 atoms

Minimization stats:
  Stopping criterion = force tolerance
  Energy initial, next-to-last, final =
  Force two-norm initial, final = 3.2799023 0.019594932
  Force max component initial, final = 1.1352536 0.0068584372
  Final line search alpha, max atom move = 1 0.0068584372
  Iterations, force evaluations = 13 25

undump 1
