# LAMMPS input script generated by PyLammps
# Initialise simulation
atom_style     atomic
units          metal
read_data     /home/winniebird/sfarrelly2024/test/test_projects/test_project_2/var_1/project/data/output/after_relax.data
Reading data file ...
  orthogonal box = (0 0 0) to (12.414835 12.468705 12.503477)
  reading atoms ...
  128 atoms
  reading velocities ...
  128 velocities
# 5 elements of HEA: Ni Co Ti Zr Hf specorder
mass           1 58.693
mass           2 58.933
mass           3 47.867
mass           4 91.224
mass           5 178.49
# Reading snap potential files
pair_style     snap
pair_coeff     * * /home/winniebird/sfarrelly2024/test/sez26_package/SNAP_potentials/HEA_var1.snapcoeff /home/winniebird/sfarrelly2024/test/sez26_package/SNAP_potentials/HEA_var1.snapparam Ni Co Ti Zr Hf
SNAP Element = Ni, Radius 1.805, Weight 0.43
SNAP Element = Co, Radius 1.81, Weight 0.48
SNAP Element = Ti, Radius 2.094, Weight 0.36
SNAP Element = Zr, Radius 2.28, Weight 0.35
SNAP Element = Hf, Radius 2.313, Weight 0.33
SNAP keyword rcutfac 1.0
SNAP keyword twojmax 8
SNAP keyword rfac0 0.99363
SNAP keyword rmin0 0.0
SNAP keyword bzeroflag 0
SNAP keyword wselfallflag 0
SNAP keyword chemflag 0
SNAP keyword bnormflag 0
SNAP keyword switchinnerflag 0
SNAP keyword quadraticflag 0
# Setup standard output
variable       avg_lxyz equal (lx+ly+lz)/3.0
thermo_style   custom step temp pe pxx pyy pzz density
thermo         100
# Set up and run MD in NPT ensemble
timestep       0.001
neighbor       1.0 bin
neigh_modify   every 5 delay 0 check yes
reset_timestep 0
dump		    1 all custom 1000 /home/winniebird/sfarrelly2024/test/test_projects/test_project_2/var_1/project/data/output/md_npt_dump.cfg id type x y z
fix		    1 all npt temp 300.0 300.0 0.1 aniso 0 0 1.0
fix		    avg all ave/time 10 100 1000 c_thermo_temp v_avg_lxyz
run		    1000
Step          Temp          PotEng          Pxx            Pyy            Pzz          Density
0   283.32711     -1001.8418      2813.9112      253.35039     -919.58604      8.9921351
Averages over the last 6 of 11 rows, steps 500 to 1000:
Temp PotEng Pxx Pyy Pzz Density
300.384 -1002.5 -1980.02 -1712.74 -1164.05 8.98407
Loop time of 20.9167 on 1 procs for 1000 steps with 128 atoms

unfix		    1
variable       avg_T equal f_avg[1]
variable       L equal f_avg[2]
variable       L0 equal 12.4648757545338
print          "Temp Strain" file /home/winniebird/sfarrelly2024/test/test_projects/test_project_2/var_1/project/data/output/Record_thermal_exp.txt
Temp Strain
298.420827679865    0.0
unfix          avg
variable	    n loop 3
label          heat
variable       t equal 300.0+1*50
fix            1 all npt temp 350 350 0.1 aniso 0 0 1.0
fix		    avg all ave/time 10 100 1000 c_thermo_temp v_avg_lxyz
run		    1000
Step          Temp          PotEng          Pxx            Pyy            Pzz          Density
1000   313.61545     -1002.4947     -9039.0493     -9627.8831     -219.42826      8.9623107
Averages over the last 6 of 11 rows, steps 1500 to 2000:
Temp PotEng Pxx Pyy Pzz Density
340.833 -1001.11 2013.66 223.9 -680.716 8.97304
Loop time of 20.8696 on 1 procs for 1000 steps with 128 atoms

unfix		    1
variable       avg_T equal f_avg[1]
variable       strain equal f_avg[2]/12.4648757545338-1.0
340.809349484324    0.00045307018443097
unfix          avg
next           n
jump          /home/winniebird/sfarrelly2024/test/test_projects/test_project_2/var_1/project/data/input/in.heat.HEA heat
variable       t equal 300.0+2*50
fix            1 all npt temp 400 400 0.1 aniso 0 0 1.0
fix		    avg all ave/time 10 100 1000 c_thermo_temp v_avg_lxyz
run		    1000
Step          Temp          PotEng          Pxx            Pyy            Pzz          Density
2000   371.01304     -1001.0124      9203.0881     -1782.5972     -4461.1962      8.9693014
Averages over the last 6 of 11 rows, steps 2500 to 3000:
Temp PotEng Pxx Pyy Pzz Density
397.785 -1000.64 -462.175 -300.631 970.976 8.96052
Loop time of 20.862 on 1 procs for 1000 steps with 128 atoms

unfix		    1
variable       avg_T equal f_avg[1]
variable       strain equal f_avg[2]/12.4648757545338-1.0
389.824766533482    0.00108007341297678
unfix          avg
next           n
jump          /home/winniebird/sfarrelly2024/test/test_projects/test_project_2/var_1/project/data/input/in.heat.HEA heat
variable       t equal 300.0+3*50
fix            1 all npt temp 450 450 0.1 aniso 0 0 1.0
fix		    avg all ave/time 10 100 1000 c_thermo_temp v_avg_lxyz
run		    1000
Step          Temp          PotEng          Pxx            Pyy            Pzz          Density
3000   409.12062     -999.84428     -1525.4222     -4283.2382      12673.017      8.9609953
Averages over the last 6 of 11 rows, steps 3500 to 4000:
Temp PotEng Pxx Pyy Pzz Density
458.21 -999.31 -1178.32 -362.996 -4.89897 8.93222
Loop time of 20.8818 on 1 procs for 1000 steps with 128 atoms

unfix		    1
variable       avg_T equal f_avg[1]
variable       strain equal f_avg[2]/12.4648757545338-1.0
448.938924973855    0.001851562181022
unfix          avg
next           n
jump          /home/winniebird/sfarrelly2024/test/test_projects/test_project_2/var_1/project/data/input/in.heat.HEA heat
