# LAMMPS input script generated by PyLammps
# Initialise simulation
atom_style     atomic
units          metal
read_data     /home/winniebird/sfarrelly2024/test/test_projects/test_project_2/var_1/project/data//input/HEA_II.lmp
Reading data file ...
  orthogonal box = (0 0 0) to (12.512 12.512 12.512)
  reading atoms ...
  128 atoms
# 5 elements of HEA: Ni Co Ti Zr Hf specorder
mass           1 58.693
mass           2 58.933
mass           3 47.867
mass           4 91.224
mass           5 178.49
# Reading snap potential files
pair_style     snap
pair_coeff     * * /home/winniebird/sfarrelly2024/test/sez26_package/SNAP_potentials/HEA_var1.snapcoeff /home/winniebird/sfarrelly2024/test/sez26_package/SNAP_potentials/HEA_var1.snapparam Ni Co Ti Zr Hf
SNAP Element = Ni, Radius 1.805, Weight 0.43
SNAP Element = Co, Radius 1.81, Weight 0.48
SNAP Element = Ti, Radius 2.094, Weight 0.36
SNAP Element = Zr, Radius 2.28, Weight 0.35
SNAP Element = Hf, Radius 2.313, Weight 0.33
SNAP keyword rcutfac 1.0
SNAP keyword twojmax 8
SNAP keyword rfac0 0.99363
SNAP keyword rmin0 0.0
SNAP keyword bzeroflag 0
SNAP keyword wselfallflag 0
SNAP keyword chemflag 0
SNAP keyword bnormflag 0
SNAP keyword switchinnerflag 0
SNAP keyword quadraticflag 0
# Setup standard output
thermo_style   custom step temp pe pxx pyy pzz density
thermo         100
# Set up and run minimization
dump		    1 all custom 100 /home/winniebird/sfarrelly2024/test/test_projects/test_project_2/var_1/project/data/output/min_dump.cfg id type x y z
min_style	    cg
fix		    1 all box/relax aniso 0.0
minimize	    0.0 0.02 200 1000
 (../min.cpp:225)
Step          Temp          PotEng          Pxx            Pyy            Pzz          Density
0   0             -1001.9641     -27173.894     -27718.963     -27609.087      8.8853741
Loop time of 6.82056 on 1 procs for 200 steps with 128 atoms

Minimization stats:
  Stopping criterion = max iterations
  Energy initial, next-to-last, final =
  Force two-norm initial, final = 58.499556 3.1024386
  Force max component initial, final = 33.88807 0.5722925
  Final line search alpha, max atom move = 0.0016323247 0.00093416718
  Iterations, force evaluations = 200 200

unfix		    1
minimize	    0.0 0.02 200 1000
Step          Temp          PotEng          Pxx            Pyy            Pzz          Density
200   0             -1004.2596     -473.47179     -471.38458     -474.12383      9.059846
Loop time of 4.93826 on 1 procs for 74 steps with 128 atoms

Minimization stats:
  Stopping criterion = force tolerance
  Energy initial, next-to-last, final =
  Force two-norm initial, final = 2.9406856 0.017666166
  Force max component initial, final = 0.47334575 0.0043091454
  Final line search alpha, max atom move = 1 0.0043091454
  Iterations, force evaluations = 74 146

undump		    1
write_data	/home/winniebird/sfarrelly2024/test/test_projects/test_project_2/var_1/project/data/output/after_min.data nocoeff
System init for write_data ...
# Define some properties you are instrested in
variable	    lenx equal lx
variable	    leny equal ly
variable	    lenz equal lz
# computing more variables
compute		    sta all stress/atom NULL
compute		    vol_atom all voronoi/atom
variable	    va atom c_vol_atom[1]
variable	    sa_xx atom 1E-4*c_sta[1]/v_va
variable	    sa_yy atom 1E-4*c_sta[2]/v_va
variable	    sa_zz atom 1E-4*c_sta[3]/v_va
variable	    sa_xy atom 1E-4*c_sta[4]/v_va
variable	    sa_xz atom 1E-4*c_sta[5]/v_va
variable	    sa_yz atom 1E-4*c_sta[6]/v_va
variable	    sa_hydro atom (v_sa_xx+v_sa_yy+v_sa_zz)/3.0
variable	    sa_von atom sqrt(0.5*((v_sa_xx-v_sa_yy)^2+(v_sa_yy-v_sa_zz)^2+(v_sa_zz-v_sa_xx)^2)+3.0*((v_sa_xy)^2+(v_sa_xz)^2+(v_sa_yz)^2))
# Set up and run MD in NPT ensemble
timestep       0.001
neighbor       1.0 bin
neigh_modify   every 5 delay 0 check yes
reset_timestep 0
velocity	    all create 300.0 12345678
dump		    1 all custom 1000 /home/winniebird/sfarrelly2024/test/test_projects/test_project_2/var_1/project/data/output/md_npt_dump.cfg id type x y z v_sa_hydro v_sa_von
fix		    2 all print 100 "$(step) $(temp) $(pe) $(vol) $(density) $(pxx) $(pyy) $(pzz)" file /home/winniebird/sfarrelly2024/test/test_projects/test_project_2/var_1/project/data//output/Record_npt.txt
fix		    1 all npt temp 300.0 300.0 0.1 aniso 0 0 1.0
fix		    avg all ave/time 10 100 1000 v_lenx v_leny v_lenz
run		    1000
Step          Temp          PotEng          Pxx            Pyy            Pzz          Density
0   300           -1006.8062     -4250.839       752.96085      2845.0473      9.059846
Loop time of 20.695 on 1 procs for 1000 steps with 128 atoms

undump		    1
unfix		    1
unfix		    2
variable	    newlx equal f_avg[1]
variable	    newly equal f_avg[2]
variable	    newlz equal f_avg[3]
change_box     all x final 0 12.4148346707718 y final 0 12.4687052813564 z final 0 12.5034770045001 remap units box
Changing box ...
  orthogonal box = (0 0.070799863 -0.014543452) to (12.414835 12.4412 12.526543)
  orthogonal box = (0 0 -0.014543452) to (12.414835 12.468705 12.526543)
  orthogonal box = (0 0 0) to (12.414835 12.468705 12.503477)
unfix          avg
write_data     /home/winniebird/sfarrelly2024/test/test_projects/test_project_2/var_1/project/data/output/after_relax.data nocoeff
System init for write_data ...
# Add a minimisation (perfect mesh analysis)
dump           1 all custom 100 /home/winniebird/sfarrelly2024/test/test_projects/test_project_2/var_1/project/data/output/min_dump.cfg id type x y z v_sa_hydro v_sa_von
minimize	    0.0 0.02 200 1000
Step          Temp          PotEng          Pxx            Pyy            Pzz          Density
1000   283.32711     -1001.8418      2813.9112      253.35039     -919.58604      8.9921351
Loop time of 2.40564 on 1 procs for 37 steps with 128 atoms

Minimization stats:
  Stopping criterion = force tolerance
  Energy initial, next-to-last, final =
  Force two-norm initial, final = 7.6340572 0.017727608
  Force max component initial, final = 1.2106551 0.0040786382
  Final line search alpha, max atom move = 1 0.0040786382
  Iterations, force evaluations = 37 71

undump         1
