# LAMMPS input script generated by PyLammps
# Initialise simulation
atom_style     atomic
units          metal
read_data     /home/winniebird/sfarrelly2024/test/test_projects/test_project_1/project/data/output/after_relax.data
Reading data file ...
  orthogonal box = (0 0 0) to (12.511648 12.40538 12.493651)
  reading atoms ...
  128 atoms
  reading velocities ...
  128 velocities
# 5 elements of HEA: Ni Co Ti Zr Hf specorder
mass           1 58.693
mass           2 58.933
mass           3 47.867
mass           4 91.224
mass           5 178.49
# Reading snap potential files
pair_style     snap
pair_coeff     * * /home/winniebird/sfarrelly2024/test/sez26_package/scripts/HEA_var1.snapcoeff /home/winniebird/sfarrelly2024/test/sez26_package/scripts/HEA_var1.snapparam Ni Co Ti Zr Hf
SNAP Element = Ni, Radius 1.805, Weight 0.43
SNAP Element = Co, Radius 1.81, Weight 0.48
SNAP Element = Ti, Radius 2.094, Weight 0.36
SNAP Element = Zr, Radius 2.28, Weight 0.35
SNAP Element = Hf, Radius 2.313, Weight 0.33
SNAP keyword rcutfac 1.0
SNAP keyword twojmax 8
SNAP keyword rfac0 0.99363
SNAP keyword rmin0 0.0
SNAP keyword bzeroflag 0
SNAP keyword wselfallflag 0
SNAP keyword chemflag 0
SNAP keyword bnormflag 0
SNAP keyword switchinnerflag 0
SNAP keyword quadraticflag 0
# Setup standard output
variable       avg_lxyz equal (lx+ly+lz)/3.0
thermo_style   custom step temp pe pxx pyy pzz density
thermo         100
# Set up and run MD in NPT ensemble
timestep       0.001
neighbor       1.0 bin
neigh_modify   every 5 delay 0 check yes
reset_timestep 0
dump		    1 all custom 1000 /home/winniebird/sfarrelly2024/test/test_projects/test_project_1/project/data/output/md_npt_dump.cfg id type x y z
fix		    1 all npt temp 300.0 300.0 0.1 aniso 0 0 1.0
fix		    avg all ave/time 10 100 1000 c_thermo_temp v_avg_lxyz
run		    1000
Step          Temp          PotEng          Pxx            Pyy            Pzz          Density
0   290.84732     -1001.4632      1657.1425      6818.2214      1101.1342      8.9751549
Averages over the last 6 of 11 rows, steps 500 to 1000:
Temp PotEng Pxx Pyy Pzz Density
293.741 -1001.14 180.656 401.088 1074.74 8.96503
Loop time of 21.0168 on 1 procs for 1000 steps with 128 atoms

unfix		    1
variable       avg_T equal f_avg[1]
variable       L equal f_avg[2]
variable       L0 equal 12.4759131095693
print          "Temp Strain" file /home/winniebird/sfarrelly2024/test/test_projects/test_project_1/project/data/output/Record_thermal_exp.txt
Temp Strain
300.354602197861    0.0
unfix          avg
variable	    n loop 3
label          heat
variable       t equal 300.0+1*50
fix            1 all npt temp 350 350 0.1 aniso 0 0 1.0
fix		    avg all ave/time 10 100 1000 c_thermo_temp v_avg_lxyz
run		    1000
Step          Temp          PotEng          Pxx            Pyy            Pzz          Density
1000   289.82439     -1001.3697     -659.80163      4502.7402      4443.7017      8.9813478
Averages over the last 6 of 11 rows, steps 1500 to 2000:
Temp PotEng Pxx Pyy Pzz Density
355.314 -1000.38 43.814 1183.83 1700.35 8.9644
Loop time of 21.0305 on 1 procs for 1000 steps with 128 atoms

unfix		    1
variable       avg_T equal f_avg[1]
variable       strain equal f_avg[2]/12.4759131095693-1.0
343.531791987758    0.000208938216871291
unfix          avg
next           n
jump          /home/winniebird/sfarrelly2024/test/test_projects/test_project_1/project/data/input/in.heat.HEA heat
variable       t equal 300.0+2*50
fix            1 all npt temp 400 400 0.1 aniso 0 0 1.0
fix		    avg all ave/time 10 100 1000 c_thermo_temp v_avg_lxyz
run		    1000
Step          Temp          PotEng          Pxx            Pyy            Pzz          Density
2000   382.10135     -1000.2997      10976.712      12974.536      15924.983      9.0251102
Averages over the last 6 of 11 rows, steps 2500 to 3000:
Temp PotEng Pxx Pyy Pzz Density
400.116 -999.082 736.885 1676.08 656.919 8.94192
Loop time of 20.9844 on 1 procs for 1000 steps with 128 atoms

unfix		    1
variable       avg_T equal f_avg[1]
variable       strain equal f_avg[2]/12.4759131095693-1.0
402.657449049963    0.00103007227859009
unfix          avg
next           n
jump          /home/winniebird/sfarrelly2024/test/test_projects/test_project_1/project/data/input/in.heat.HEA heat
variable       t equal 300.0+3*50
fix            1 all npt temp 450 450 0.1 aniso 0 0 1.0
fix		    avg all ave/time 10 100 1000 c_thermo_temp v_avg_lxyz
run		    1000
Step          Temp          PotEng          Pxx            Pyy            Pzz          Density
3000   381.55636     -999.2263      -3779.7738     -1695.0533     -5446.9702      8.9182647
Averages over the last 6 of 11 rows, steps 3500 to 4000:
Temp PotEng Pxx Pyy Pzz Density
446.576 -999.035 -460.627 454.456 -451.085 8.93089
Loop time of 20.9559 on 1 procs for 1000 steps with 128 atoms

unfix		    1
variable       avg_T equal f_avg[1]
variable       strain equal f_avg[2]/12.4759131095693-1.0
438.644627631188    0.00134342498635243
unfix          avg
next           n
jump          /home/winniebird/sfarrelly2024/test/test_projects/test_project_1/project/data/input/in.heat.HEA heat
