# LAMMPS input script generated by PyLammps
# Initialise simulation
atom_style     atomic
units          metal
read_data     /home/winniebird/sfarrelly2024/test/test_projects/test_project_2/var_2/project/data/output/after_relax.data
Reading data file ...
  orthogonal box = (0 0 0) to (12.504535 12.46285 12.44461)
  reading atoms ...
  128 atoms
  reading velocities ...
  128 velocities
# 5 elements of HEA: Ni Co Ti Zr Hf specorder
mass           1 58.693
mass           2 58.933
mass           3 47.867
mass           4 91.224
mass           5 178.49
# Reading snap potential files
pair_style     snap
pair_coeff     * * /home/winniebird/sfarrelly2024/test/sez26_package/SNAP_potentials/HEA_var1.snapcoeff /home/winniebird/sfarrelly2024/test/sez26_package/SNAP_potentials/HEA_var1.snapparam Ni Co Ti Zr Hf
SNAP Element = Ni, Radius 1.805, Weight 0.43
SNAP Element = Co, Radius 1.81, Weight 0.48
SNAP Element = Ti, Radius 2.094, Weight 0.36
SNAP Element = Zr, Radius 2.28, Weight 0.35
SNAP Element = Hf, Radius 2.313, Weight 0.33
SNAP keyword rcutfac 1.0
SNAP keyword twojmax 8
SNAP keyword rfac0 0.99363
SNAP keyword rmin0 0.0
SNAP keyword bzeroflag 0
SNAP keyword wselfallflag 0
SNAP keyword chemflag 0
SNAP keyword bnormflag 0
SNAP keyword switchinnerflag 0
SNAP keyword quadraticflag 0
# Setup standard output
variable       avg_lxyz equal (lx+ly+lz)/3.0
thermo_style   custom step temp pe pxx pyy pzz density
thermo         100
# Set up and run MD in NPT ensemble
timestep       0.001
neighbor       1.0 bin
neigh_modify   every 5 delay 0 check yes
reset_timestep 0
dump		    1 all custom 1000 /home/winniebird/sfarrelly2024/test/test_projects/test_project_2/var_2/project/data/output/md_npt_dump.cfg id type x y z
fix		    1 all npt temp 300.0 300.0 0.1 aniso 0 0 1.0
fix		    avg all ave/time 10 100 1000 c_thermo_temp v_avg_lxyz
run		    1000
Step          Temp          PotEng          Pxx            Pyy            Pzz          Density
0   300.8156      -1001.3116     -413.28477      2547.6474      859.20342      8.9740758
Averages over the last 6 of 11 rows, steps 500 to 1000:
Temp PotEng Pxx Pyy Pzz Density
295.542 -1001.05 939.042 1522.87 400.684 8.96866
Loop time of 21.1709 on 1 procs for 1000 steps with 128 atoms

unfix		    1
variable       avg_T equal f_avg[1]
variable       L equal f_avg[2]
variable       L0 equal 12.4760933735452
print          "Temp Strain" file /home/winniebird/sfarrelly2024/test/test_projects/test_project_2/var_2/project/data/output/Record_thermal_exp.txt
Temp Strain
299.764415566401    0.0
unfix          avg
variable	    n loop 3
label          heat
variable       t equal 300.0+1*50
fix            1 all npt temp 350 350 0.1 aniso 0 0 1.0
fix		    avg all ave/time 10 100 1000 c_thermo_temp v_avg_lxyz
run		    1000
Step          Temp          PotEng          Pxx            Pyy            Pzz          Density
1000   276.09818     -1000.984      -3167.087       982.09886      1089.6888      8.9629284
Averages over the last 6 of 11 rows, steps 1500 to 2000:
Temp PotEng Pxx Pyy Pzz Density
345.617 -1000.43 -397.776 -1367.06 -1877.93 8.94622
Loop time of 21.2231 on 1 procs for 1000 steps with 128 atoms

unfix		    1
variable       avg_T equal f_avg[1]
variable       strain equal f_avg[2]/12.4760933735452-1.0
341.525726404386    0.000306107476849782
unfix          avg
next           n
jump          /home/winniebird/sfarrelly2024/test/test_projects/test_project_2/var_2/project/data/input/in.heat.HEA heat
variable       t equal 300.0+2*50
fix            1 all npt temp 400 400 0.1 aniso 0 0 1.0
fix		    avg all ave/time 10 100 1000 c_thermo_temp v_avg_lxyz
run		    1000
Step          Temp          PotEng          Pxx            Pyy            Pzz          Density
2000   352.98683     -1000.0177     -2324.5789     -7930.8394     -2847.0953      8.9217492
Averages over the last 6 of 11 rows, steps 2500 to 3000:
Temp PotEng Pxx Pyy Pzz Density
366.669 -999.842 -2783.11 169.857 -2454.91 8.9308
Loop time of 21.2399 on 1 procs for 1000 steps with 128 atoms

unfix		    1
variable       avg_T equal f_avg[1]
variable       strain equal f_avg[2]/12.4760933735452-1.0
381.421179071109    0.000808778259301146
unfix          avg
next           n
jump          /home/winniebird/sfarrelly2024/test/test_projects/test_project_2/var_2/project/data/input/in.heat.HEA heat
variable       t equal 300.0+3*50
fix            1 all npt temp 450 450 0.1 aniso 0 0 1.0
fix		    avg all ave/time 10 100 1000 c_thermo_temp v_avg_lxyz
run		    1000
Step          Temp          PotEng          Pxx            Pyy            Pzz          Density
3000   393.02598     -999.35941     -9180.8239      1741.8228     -3990.7619      8.9145044
Averages over the last 6 of 11 rows, steps 3500 to 4000:
Temp PotEng Pxx Pyy Pzz Density
460.644 -998.648 -1263.06 44.3576 2606.96 8.92038
Loop time of 21.2372 on 1 procs for 1000 steps with 128 atoms

unfix		    1
variable       avg_T equal f_avg[1]
variable       strain equal f_avg[2]/12.4760933735452-1.0
448.024571604858    0.00167013672348526
unfix          avg
next           n
jump          /home/winniebird/sfarrelly2024/test/test_projects/test_project_2/var_2/project/data/input/in.heat.HEA heat
