# LAMMPS input script generated by PyLammps
# Initialise simulation
atom_style     atomic
units          metal
read_data     /home/winniebird/sfarrelly2024/test/test_projects/test_project_2/var_2/project/data//input/HEA_II.lmp
Reading data file ...
  orthogonal box = (0 0 0) to (12.512 12.512 12.512)
  reading atoms ...
  128 atoms
# 5 elements of HEA: Ni Co Ti Zr Hf specorder
mass           1 58.693
mass           2 58.933
mass           3 47.867
mass           4 91.224
mass           5 178.49
# Reading snap potential files
pair_style     snap
pair_coeff     * * /home/winniebird/sfarrelly2024/test/sez26_package/SNAP_potentials/HEA_var2.snapcoeff /home/winniebird/sfarrelly2024/test/sez26_package/SNAP_potentials/HEA_var2.snapparam Ni Co Ti Zr Hf
SNAP Element = Ni, Radius 1.849, Weight 0.31
SNAP Element = Co, Radius 1.853, Weight 0.33
SNAP Element = Ti, Radius 2.05, Weight 0.48
SNAP Element = Zr, Radius 2.18, Weight 0.45
SNAP Element = Hf, Radius 2.303, Weight 0.51
SNAP keyword rcutfac 1.0
SNAP keyword twojmax 8
SNAP keyword rfac0 0.99363
SNAP keyword rmin0 0.0
SNAP keyword bzeroflag 0
SNAP keyword wselfallflag 0
SNAP keyword chemflag 0
SNAP keyword bnormflag 0
SNAP keyword switchinnerflag 0
SNAP keyword quadraticflag 0
# Setup standard output
thermo_style   custom step temp pe pxx pyy pzz density
thermo         100
# Set up and run minimization
dump		    1 all custom 100 /home/winniebird/sfarrelly2024/test/test_projects/test_project_2/var_2/project/data/output/min_dump.cfg id type x y z
min_style	    cg
fix		    1 all box/relax aniso 0.0
minimize	    0.0 0.02 200 1000
 (../min.cpp:225)
Step          Temp          PotEng          Pxx            Pyy            Pzz          Density
0   0             -1001.9425     -22197.426     -23911.933     -22189.302      8.8853741
Loop time of 6.61872 on 1 procs for 200 steps with 128 atoms

Minimization stats:
  Stopping criterion = max iterations
  Energy initial, next-to-last, final =
  Force two-norm initial, final = 48.491053 2.5325369
  Force max component initial, final = 29.23375 0.56156575
  Final line search alpha, max atom move = 0.00023682881 0.00013299495
  Iterations, force evaluations = 200 200

unfix		    1
minimize	    0.0 0.02 200 1000
Step          Temp          PotEng          Pxx            Pyy            Pzz          Density
200   0             -1003.9145      106.14789      106.56623      102.98654      9.043135
Loop time of 2.02041 on 1 procs for 31 steps with 128 atoms

Minimization stats:
  Stopping criterion = force tolerance
  Energy initial, next-to-last, final =
  Force two-norm initial, final = 2.5229403 0.018279104
  Force max component initial, final = 0.56156575 0.0034713542
  Final line search alpha, max atom move = 1 0.0034713542
  Iterations, force evaluations = 31 60

undump		    1
write_data	/home/winniebird/sfarrelly2024/test/test_projects/test_project_2/var_2/project/data/output/after_min.data nocoeff
System init for write_data ...
# Define some properties you are instrested in
variable	    lenx equal lx
variable	    leny equal ly
variable	    lenz equal lz
# computing more variables
compute		    sta all stress/atom NULL
compute		    vol_atom all voronoi/atom
variable	    va atom c_vol_atom[1]
variable	    sa_xx atom 1E-4*c_sta[1]/v_va
variable	    sa_yy atom 1E-4*c_sta[2]/v_va
variable	    sa_zz atom 1E-4*c_sta[3]/v_va
variable	    sa_xy atom 1E-4*c_sta[4]/v_va
variable	    sa_xz atom 1E-4*c_sta[5]/v_va
variable	    sa_yz atom 1E-4*c_sta[6]/v_va
variable	    sa_hydro atom (v_sa_xx+v_sa_yy+v_sa_zz)/3.0
variable	    sa_von atom sqrt(0.5*((v_sa_xx-v_sa_yy)^2+(v_sa_yy-v_sa_zz)^2+(v_sa_zz-v_sa_xx)^2)+3.0*((v_sa_xy)^2+(v_sa_xz)^2+(v_sa_yz)^2))
# Set up and run MD in NPT ensemble
timestep       0.001
neighbor       1.0 bin
neigh_modify   every 5 delay 0 check yes
reset_timestep 0
velocity	    all create 300.0 12345678
dump		    1 all custom 1000 /home/winniebird/sfarrelly2024/test/test_projects/test_project_2/var_2/project/data/output/md_npt_dump.cfg id type x y z v_sa_hydro v_sa_von
fix		    2 all print 100 "$(step) $(temp) $(pe) $(vol) $(density) $(pxx) $(pyy) $(pzz)" file /home/winniebird/sfarrelly2024/test/test_projects/test_project_2/var_2/project/data//output/Record_npt.txt
fix		    1 all npt temp 300.0 300.0 0.1 aniso 0 0 1.0
fix		    avg all ave/time 10 100 1000 v_lenx v_leny v_lenz
run		    1000
Step          Temp          PotEng          Pxx            Pyy            Pzz          Density
0   300           -1005.7764     -1779.8213     -2724.6964     -4043.4359      9.043135
Loop time of 20.5651 on 1 procs for 1000 steps with 128 atoms

undump		    1
unfix		    1
unfix		    2
variable	    newlx equal f_avg[1]
variable	    newly equal f_avg[2]
variable	    newlz equal f_avg[3]
change_box     all x final 0 12.504535244073 y final 0 12.4628496814135 z final 0 12.4446096052736 remap units box
Changing box ...
  orthogonal box = (0 0.039764842 -0.042057011) to (12.504535 12.472235 12.554057)
  orthogonal box = (0 0 -0.042057011) to (12.504535 12.46285 12.554057)
  orthogonal box = (0 0 0) to (12.504535 12.46285 12.44461)
unfix          avg
write_data     /home/winniebird/sfarrelly2024/test/test_projects/test_project_2/var_2/project/data/output/after_relax.data nocoeff
System init for write_data ...
# Add a minimisation (perfect mesh analysis)
dump           1 all custom 100 /home/winniebird/sfarrelly2024/test/test_projects/test_project_2/var_2/project/data/output/min_dump.cfg id type x y z v_sa_hydro v_sa_von
minimize	    0.0 0.02 200 1000
Step          Temp          PotEng          Pxx            Pyy            Pzz          Density
1000   300.8156      -1000.9361     -1170.3904      1728.5479      25.6577        8.9740758
Loop time of 6.34221 on 1 procs for 99 steps with 128 atoms

Minimization stats:
  Stopping criterion = force tolerance
  Energy initial, next-to-last, final =
  Force two-norm initial, final = 7.3813289 0.019515928
  Force max component initial, final = 1.4874533 0.0035940159
  Final line search alpha, max atom move = 1 0.0035940159
  Iterations, force evaluations = 99 191

undump         1
