# LAMMPS input script generated by PyLammps
# Initialise simulation
atom_style     atomic
units          metal
read_data     /home/winniebird/sfarrelly2024/test/test_projects/test_project/project/data//input/HEA_II.lmp
Reading data file ...
  orthogonal box = (0 0 0) to (12.512 12.512 12.512)
  reading atoms ...
  128 atoms
# 5 elements of HEA: Ni Co Ti Zr Hf specorder
mass           1 58.693
mass           2 58.933
mass           3 47.867
mass           4 91.224
mass           5 178.49
# Reading snap potential files
pair_style     snap
pair_coeff     * * /home/winniebird/sfarrelly2024/test/sez26_package/scripts/HEA_var1.snapcoeff /home/winniebird/sfarrelly2024/test/sez26_package/scripts/HEA_var1.snapparam Ni Co Ti Zr Hf
SNAP Element = Ni, Radius 1.805, Weight 0.43
SNAP Element = Co, Radius 1.81, Weight 0.48
SNAP Element = Ti, Radius 2.094, Weight 0.36
SNAP Element = Zr, Radius 2.28, Weight 0.35
SNAP Element = Hf, Radius 2.313, Weight 0.33
SNAP keyword rcutfac 1.0
SNAP keyword twojmax 8
SNAP keyword rfac0 0.99363
SNAP keyword rmin0 0.0
SNAP keyword bzeroflag 0
SNAP keyword wselfallflag 0
SNAP keyword chemflag 0
SNAP keyword bnormflag 0
SNAP keyword switchinnerflag 0
SNAP keyword quadraticflag 0
# Setup standard output
thermo_style   custom step temp pe pxx pyy pzz density
thermo         100
# Set up and run minimization
dump		    1 all custom 100 /home/winniebird/sfarrelly2024/test/test_projects/test_project/project/data/output/min_dump.cfg id type x y z
min_style	    cg
fix		    1 all box/relax aniso 0.0
minimize	    0.0 0.02 200 1000
 (../min.cpp:225)
Step          Temp          PotEng          Pxx            Pyy            Pzz          Density
0   0             -1002.0319     -26347.702     -26188.488     -27482.882      8.8853741
Loop time of 6.82508 on 1 procs for 200 steps with 128 atoms

Minimization stats:
  Stopping criterion = max iterations
  Energy initial, next-to-last, final =
  Force two-norm initial, final = 56.7362 3.3473769
  Force max component initial, final = 33.599447 0.63357524
  Final line search alpha, max atom move = 0.0084986042 0.0053845052
  Iterations, force evaluations = 200 200

unfix		    1
minimize	    0.0 0.02 200 1000
Step          Temp          PotEng          Pxx            Pyy            Pzz          Density
200   0             -1004.2593     -524.58404     -517.25013     -511.9434       9.0566487
Loop time of 3.06284 on 1 procs for 45 steps with 128 atoms

Minimization stats:
  Stopping criterion = force tolerance
  Energy initial, next-to-last, final =
  Force two-norm initial, final = 3.167371 0.019829511
  Force max component initial, final = 0.56918597 0.0029139456
  Final line search alpha, max atom move = 1 0.0029139456
  Iterations, force evaluations = 45 89

undump		    1
write_data	/home/winniebird/sfarrelly2024/test/test_projects/test_project/project/data/output/after_min.data nocoeff
System init for write_data ...
# Define some properties you are instrested in
variable	    lenx equal lx
variable	    leny equal ly
variable	    lenz equal lz
# computing more variables
compute		    sta all stress/atom NULL
compute		    vol_atom all voronoi/atom
variable	    va atom c_vol_atom[1]
variable	    sa_xx atom 1E-4*c_sta[1]/v_va
variable	    sa_yy atom 1E-4*c_sta[2]/v_va
variable	    sa_zz atom 1E-4*c_sta[3]/v_va
variable	    sa_xy atom 1E-4*c_sta[4]/v_va
variable	    sa_xz atom 1E-4*c_sta[5]/v_va
variable	    sa_yz atom 1E-4*c_sta[6]/v_va
variable	    sa_hydro atom (v_sa_xx+v_sa_yy+v_sa_zz)/3.0
variable	    sa_von atom sqrt(0.5*((v_sa_xx-v_sa_yy)^2+(v_sa_yy-v_sa_zz)^2+(v_sa_zz-v_sa_xx)^2)+3.0*((v_sa_xy)^2+(v_sa_xz)^2+(v_sa_yz)^2))
# Set up and run MD in NPT ensemble
timestep       0.001
neighbor       1.0 bin
neigh_modify   every 5 delay 0 check yes
reset_timestep 0
velocity	    all create 300.0 12345678
dump		    1 all custom 1000 /home/winniebird/sfarrelly2024/test/test_projects/test_project/project/data/output/md_npt_dump.cfg id type x y z v_sa_hydro v_sa_von
fix		    2 all print 100 "$(step) $(temp) $(pe) $(vol) $(density) $(pxx) $(pyy) $(pzz)" file /home/winniebird/sfarrelly2024/test/test_projects/test_project/project/data//output/Record_npt.txt
fix		    1 all npt temp 300.0 300.0 0.1 aniso 0 0 1.0
fix		    avg all ave/time 10 100 1000 v_lenx v_leny v_lenz
run		    1000
Step          Temp          PotEng          Pxx            Pyy            Pzz          Density
0   300           -1006.3085     -3827.2839      1245.1416      2978.2891      9.0566487
Loop time of 21.0775 on 1 procs for 1000 steps with 128 atoms

undump		    1
unfix		    1
unfix		    2
variable	    newlx equal f_avg[1]
variable	    newly equal f_avg[2]
variable	    newlz equal f_avg[3]
change_box     all x final 0 12.4354661923901 y final 0 12.4918516876659 z final 0 12.4698498518631 remap units box
Changing box ...
  orthogonal box = (0 -0.027947318 -0.013224298) to (12.435466 12.539947 12.525224)
  orthogonal box = (0 0 -0.013224298) to (12.435466 12.491852 12.525224)
  orthogonal box = (0 0 0) to (12.435466 12.491852 12.46985)
unfix          avg
write_data     /home/winniebird/sfarrelly2024/test/test_projects/test_project/project/data/output/after_relax.data nocoeff
System init for write_data ...
# Add a minimisation (perfect mesh analysis)
dump           1 all custom 100 /home/winniebird/sfarrelly2024/test/test_projects/test_project/project/data/output/min_dump.cfg id type x y z v_sa_hydro v_sa_von
minimize	    0.0 0.02 200 1000
Step          Temp          PotEng          Pxx            Pyy            Pzz          Density
1000   295.97569     -1001.8879      958.93214      1817.8753      100.38624      8.9847461
Loop time of 2.54999 on 1 procs for 38 steps with 128 atoms

Minimization stats:
  Stopping criterion = force tolerance
  Energy initial, next-to-last, final =
  Force two-norm initial, final = 6.7917884 0.01961384
  Force max component initial, final = 1.2351785 0.0046199891
  Final line search alpha, max atom move = 1 0.0046199891
  Iterations, force evaluations = 38 74

undump         1
